LTspice 24.1.9 for Windows
Circuit: C:\Users\Mads2\DTU\3.semester\Integrated Analog Electronics\LTspice\L02.net
Start Time: Sun Sep 14 21:15:32 2025
solver = Normal
Maximum thread count: 12
tnom = 27
temp = 27
method = trap
WARNING: Node n004 is floating.
WARNING: Node n002 is floating.
WARNING: Node n003 is floating.

Instance "M1": Length shorter than recommended for a level 1 MOSFET.
Instance "M1": Width narrower than recommended for a level 1 MOSFET.
Instance "M2": Length shorter than recommended for a level 1 MOSFET.
Instance "M2": Width narrower than recommended for a level 1 MOSFET.
Instance "M3": Length shorter than recommended for a level 1 MOSFET.
Instance "M3": Width narrower than recommended for a level 1 MOSFET.
Direct Newton iteration for .op point succeeded.
Total elapsed time: 0.089 seconds.

Files loaded:
C:\Users\Mads2\DTU\3.semester\Integrated Analog Electronics\LTspice\L02.net
C:\Users\Mads2\AppData\Local\LTspice\lib\cmp\standard.mos

